<?xml version="1.0" encoding="UTF-8"?>

<!-- generated on 2023-09-21 01:38:59.796518 by osmWebWizard.py UNKNOWN
<configuration>
    <net-file value="/home/caiopetruccirosa/Repositories/sumo-unicamp-simulation/unicamp-simulation/2023-09-21-01-38-46/osm.net.xml.gz"/>
    <output-trip-file value="/home/caiopetruccirosa/Repositories/sumo-unicamp-simulation/unicamp-simulation/2023-09-21-01-38-46/osm.passenger.trips.xml"/>
    <route-file value="/home/caiopetruccirosa/Repositories/sumo-unicamp-simulation/unicamp-simulation/2023-09-21-01-38-46/osm.passenger.rou.xml"/>
    <prefix value="veh"/>
    <trip-attributes value="departLane=&quot;best&quot;"/>
    <fringe-start-attributes value="departSpeed=&quot;max&quot;"/>
    <vehicle-class value="passenger"/>
    <lanes value="True"/>
    <fringe-factor value="5"/>
    <allow-fringe.min-length value="1000.0"/>
    <via-edge-types value="highway.motorway,highway.motorway_link,highway.trunk_link,highway.primary_link,highway.secondary_link,highway.tertiary_link"/>
    <min-distance value="300.0"/>
    <min-distance.fringe value="10.0"/>
    <remove-loops value="True"/>
    <validate value="True"/>
    <insertion-density value="12.0"/>
</configuration>
-->

<!-- generated on 2023-09-21 01:38:59 by Eclipse SUMO duarouter Version 1.18.0
<configuration xmlns:xsi="http://www.w3.org/2001/XMLSchema-instance" xsi:noNamespaceSchemaLocation="http://sumo.dlr.de/xsd/duarouterConfiguration.xsd">

    <input>
        <net-file value="/home/caiopetruccirosa/Repositories/sumo-unicamp-simulation/unicamp-simulation/2023-09-21-01-38-46/osm.net.xml.gz"/>
        <route-files value="/home/caiopetruccirosa/Repositories/sumo-unicamp-simulation/unicamp-simulation/2023-09-21-01-38-46/osm.passenger.trips.xml"/>
    </input>

    <output>
        <output-file value="/home/caiopetruccirosa/Repositories/sumo-unicamp-simulation/unicamp-simulation/2023-09-21-01-38-46/osm.passenger.trips.xml.tmp"/>
        <alternatives-output value="NUL"/>
        <write-trips value="true"/>
    </output>

    <processing>
        <remove-loops value="true"/>
    </processing>

    <time>
        <begin value="0.0"/>
        <end value="3600.0"/>
    </time>

    <report>
        <no-warnings value="true"/>
        <ignore-errors value="true"/>
        <no-step-log value="true"/>
    </report>

</configuration>
-->

<routes xmlns:xsi="http://www.w3.org/2001/XMLSchema-instance" xsi:noNamespaceSchemaLocation="http://sumo.dlr.de/xsd/routes_file.xsd">
    <vType id="veh_passenger" vClass="passenger"/>
    <trip id="veh0" type="veh_passenger" depart="0.00" departLane="best" from="72508573#10" to="-147379107#0"/>
    <trip id="veh1" type="veh_passenger" depart="3.38" departLane="best" from="147379106#0" to="-75259406#3"/>
    <trip id="veh2" type="veh_passenger" depart="6.76" departLane="best" from="75413336#3" to="72644721#7"/>
    <trip id="veh5" type="veh_passenger" depart="16.90" departLane="best" departSpeed="max" from="-75679328#2" to="535725901#2"/>
    <trip id="veh6" type="veh_passenger" depart="20.28" departLane="best" from="183876531#4" to="-75259400#4"/>
    <trip id="veh8" type="veh_passenger" depart="27.04" departLane="best" departSpeed="max" from="-75679328#2" to="693637406#8"/>
    <trip id="veh9" type="veh_passenger" depart="30.43" departLane="best" from="75701372#1" to="75259405#1"/>
    <trip id="veh10" type="veh_passenger" depart="33.81" departLane="best" from="183876531#7" to="-70200199#6"/>
    <trip id="veh13" type="veh_passenger" depart="43.95" departLane="best" from="77674929#1" to="70200192#1"/>
    <trip id="veh14" type="veh_passenger" depart="47.33" departLane="best" from="563505769#5" to="887737023"/>
    <trip id="veh15" type="veh_passenger" depart="50.71" departLane="best" from="269853395#2" to="563505769#1"/>
    <trip id="veh16" type="veh_passenger" depart="54.09" departLane="best" from="77674950#4" to="70200195#9"/>
    <trip id="veh17" type="veh_passenger" depart="57.47" departLane="best" from="77674945#3" to="693637326#1"/>
    <trip id="veh18" type="veh_passenger" depart="60.85" departLane="best" departSpeed="max" from="75259402#0" to="-269853393#0"/>
    <trip id="veh19" type="veh_passenger" depart="64.23" departLane="best" from="75701376#6" to="-890738229#0"/>
    <trip id="veh20" type="veh_passenger" depart="67.61" departLane="best" from="-537232375" to="-75413332#1"/>
    <trip id="veh22" type="veh_passenger" depart="74.37" departLane="best" from="-72508571#1" to="237036477#10"/>
    <trip id="veh23" type="veh_passenger" depart="77.75" departLane="best" from="260761733#2" to="-75259405#0"/>
    <trip id="veh25" type="veh_passenger" depart="84.51" departLane="best" from="72508816#1" to="70200195#1"/>
    <trip id="veh26" type="veh_passenger" depart="87.89" departLane="best" from="-75259400#0" to="-75413339#0"/>
    <trip id="veh27" type="veh_passenger" depart="91.28" departLane="best" from="-72644726#0" to="237036477#7"/>
    <trip id="veh28" type="veh_passenger" depart="94.66" departLane="best" from="89478571#3" to="693637406#3"/>
    <trip id="veh29" type="veh_passenger" depart="98.04" departLane="best" departSpeed="max" from="691471817" to="-72644726#3"/>
    <trip id="veh30" type="veh_passenger" depart="101.42" departLane="best" from="-75701376#7" to="183876531#0"/>
    <trip id="veh32" type="veh_passenger" depart="108.18" departLane="best" from="-75413339#2" to="77875607#7"/>
    <trip id="veh33" type="veh_passenger" depart="111.56" departLane="best" from="77674950#5" to="-147379106#0"/>
    <trip id="veh34" type="veh_passenger" depart="114.94" departLane="best" from="72508821#2" to="278132384#1"/>
    <trip id="veh35" type="veh_passenger" depart="118.32" departLane="best" from="77874668#0" to="447326321#1"/>
    <trip id="veh38" type="veh_passenger" depart="128.46" departLane="best" from="70056689#5" to="77709896#2"/>
    <trip id="veh39" type="veh_passenger" depart="131.84" departLane="best" from="-329703621#3" to="-75259405#7"/>
    <trip id="veh40" type="veh_passenger" depart="135.22" departLane="best" from="90743683#1" to="535725901#9"/>
    <trip id="veh42" type="veh_passenger" depart="141.98" departLane="best" from="-563505769#8" to="70200197#5"/>
    <trip id="veh43" type="veh_passenger" depart="145.36" departLane="best" from="75679335#0" to="329703621#6"/>
    <trip id="veh44" type="veh_passenger" depart="148.74" departLane="best" from="447326319#1" to="260761733#0"/>
    <trip id="veh45" type="veh_passenger" depart="152.13" departLane="best" from="906065938" to="563505734#0"/>
    <trip id="veh46" type="veh_passenger" depart="155.51" departLane="best" from="889999537#1" to="77674945#0"/>
    <trip id="veh48" type="veh_passenger" depart="162.27" departLane="best" from="72644721#7" to="563505741#1"/>
    <trip id="veh50" type="veh_passenger" depart="169.03" departLane="best" from="-564511813#0" to="386834060#3"/>
    <trip id="veh51" type="veh_passenger" depart="172.41" departLane="best" from="451065272#1" to="77881557#9"/>
    <trip id="veh53" type="veh_passenger" depart="179.17" departLane="best" from="-537232376" to="-72644044#5"/>
    <trip id="veh54" type="veh_passenger" depart="182.55" departLane="best" from="77874501#1" to="77674947#2"/>
    <trip id="veh55" type="veh_passenger" depart="185.93" departLane="best" departSpeed="max" from="147419849#0" to="72508573#10"/>
    <trip id="veh56" type="veh_passenger" depart="189.31" departLane="best" departSpeed="max" from="70200195#0" to="-70200199#4"/>
    <trip id="veh58" type="veh_passenger" depart="196.07" departLane="best" from="75679319#2" to="563505734#1"/>
    <trip id="veh59" type="veh_passenger" depart="199.45" departLane="best" departSpeed="max" from="-1046248579" to="147379116#5"/>
    <trip id="veh60" type="veh_passenger" depart="202.83" departLane="best" from="-147379106#2" to="77874501#0"/>
    <trip id="veh61" type="veh_passenger" depart="206.21" departLane="best" from="77674950#8" to="769466394#8"/>
    <trip id="veh62" type="veh_passenger" depart="209.59" departLane="best" from="147419849#3" to="329703621#4"/>
    <trip id="veh63" type="veh_passenger" depart="212.98" departLane="best" from="77674950#7" to="77881557#1"/>
    <trip id="veh64" type="veh_passenger" depart="216.36" departLane="best" from="-563505734#4" to="535556339#1"/>
    <trip id="veh66" type="veh_passenger" depart="223.12" departLane="best" from="75679284#1" to="-70200192#0"/>
    <trip id="veh67" type="veh_passenger" depart="226.50" departLane="best" from="535558320#6" to="-563505767#1"/>
    <trip id="veh69" type="veh_passenger" depart="233.26" departLane="best" from="447326048#5" to="-75259405#0"/>
    <trip id="veh70" type="veh_passenger" depart="236.64" departLane="best" from="-563505769#9" to="75413339#2"/>
    <trip id="veh72" type="veh_passenger" depart="243.40" departLane="best" from="906049246" to="72508816#5"/>
    <trip id="veh73" type="veh_passenger" depart="246.78" departLane="best" from="447326321#1" to="537162273"/>
    <trip id="veh74" type="veh_passenger" depart="250.16" departLane="best" from="70200192#6" to="-75413329#0"/>
    <trip id="veh75" type="veh_passenger" depart="253.54" departLane="best" from="183876531#3" to="693637406#7"/>
    <trip id="veh76" type="veh_passenger" depart="256.92" departLane="best" from="77652221" to="-75259406#0"/>
    <trip id="veh78" type="veh_passenger" depart="263.68" departLane="best" from="75701376#7" to="77709899#4"/>
    <trip id="veh79" type="veh_passenger" depart="267.06" departLane="best" from="77674945#1" to="-447326319#3"/>
    <trip id="veh81" type="veh_passenger" depart="273.83" departLane="best" from="-75413343#1" to="-70200192#2"/>
    <trip id="veh82" type="veh_passenger" depart="277.21" departLane="best" from="77881557#8" to="691471816"/>
    <trip id="veh83" type="veh_passenger" depart="280.59" departLane="best" from="535558320#3" to="75679333#0"/>
    <trip id="veh84" type="veh_passenger" depart="283.97" departLane="best" from="75701372#4" to="-72644726#3"/>
    <trip id="veh85" type="veh_passenger" depart="287.35" departLane="best" from="563505767#1" to="386834060#1"/>
    <trip id="veh86" type="veh_passenger" depart="290.73" departLane="best" from="447326048#6" to="447326323#1"/>
    <trip id="veh87" type="veh_passenger" depart="294.11" departLane="best" departSpeed="max" from="890738229#0" to="-563505769#1"/>
    <trip id="veh88" type="veh_passenger" depart="297.49" departLane="best" from="-329703621#7" to="147419849#6"/>
    <trip id="veh89" type="veh_passenger" depart="300.87" departLane="best" from="77674945#3" to="-75701376#1"/>
    <trip id="veh90" type="veh_passenger" depart="304.25" departLane="best" from="-75259407" to="447326050#1"/>
    <trip id="veh92" type="veh_passenger" depart="311.01" departLane="best" from="-90743683#1" to="77873314#5"/>
    <trip id="veh93" type="veh_passenger" depart="314.39" departLane="best" from="447326322#2" to="77674945#1"/>
    <trip id="veh95" type="veh_passenger" depart="321.15" departLane="best" from="-90743683#3" to="77670431#4"/>
    <trip id="veh96" type="veh_passenger" depart="324.53" departLane="best" from="887737023" to="77874157"/>
    <trip id="veh97" type="veh_passenger" depart="327.91" departLane="best" from="77674929#3" to="-72641085#0"/>
    <trip id="veh98" type="veh_passenger" depart="331.29" departLane="best" from="535725901#3" to="-75259405#1"/>
    <trip id="veh99" type="veh_passenger" depart="334.68" departLane="best" from="278132384#0" to="-890738229#1"/>
    <trip id="veh101" type="veh_passenger" depart="341.44" departLane="best" from="451065273" to="329703621#7"/>
    <trip id="veh103" type="veh_passenger" depart="348.20" departLane="best" from="689691698#1" to="75413330#3"/>
    <trip id="veh104" type="veh_passenger" depart="351.58" departLane="best" from="-72644044#5" to="1046248579"/>
    <trip id="veh105" type="veh_passenger" depart="354.96" departLane="best" from="887737023" to="693637327#2"/>
    <trip id="veh106" type="veh_passenger" depart="358.34" departLane="best" departSpeed="max" from="564511814" to="75416306#5"/>
    <trip id="veh107" type="veh_passenger" depart="361.72" departLane="best" from="-333333538" to="693637406#12"/>
    <trip id="veh109" type="veh_passenger" depart="368.48" departLane="best" from="-537232375" to="-72644721#6"/>
    <trip id="veh110" type="veh_passenger" depart="371.86" departLane="best" from="70200192#1" to="72644721#6"/>
    <trip id="veh112" type="veh_passenger" depart="378.62" departLane="best" from="77709899#1" to="75679328#1"/>
    <trip id="veh113" type="veh_passenger" depart="382.00" departLane="best" departSpeed="max" from="70200192#0" to="70200195#9"/>
    <trip id="veh114" type="veh_passenger" depart="385.38" departLane="best" from="386834060#9" to="693637406#11"/>
    <trip id="veh115" type="veh_passenger" depart="388.76" departLane="best" from="-563505766#1" to="77874668#3"/>
    <trip id="veh117" type="veh_passenger" depart="395.53" departLane="best" from="-72644044#3" to="1046248579"/>
    <trip id="veh118" type="veh_passenger" depart="398.91" departLane="best" from="147419849#7" to="75679256#0"/>
    <trip id="veh119" type="veh_passenger" depart="402.29" departLane="best" from="-537232373" to="447326321#0"/>
    <trip id="veh120" type="veh_passenger" depart="405.67" departLane="best" from="-90743683#2" to="906065938"/>
    <trip id="veh121" type="veh_passenger" depart="409.05" departLane="best" from="-537232373" to="-75259405#0"/>
    <trip id="veh124" type="veh_passenger" depart="419.19" departLane="best" from="260761733#1-AddedOnRampEdge" to="-72508571#2"/>
    <trip id="veh125" type="veh_passenger" depart="422.57" departLane="best" from="77670431#3" to="-75259405#6"/>
    <trip id="veh127" type="veh_passenger" depart="429.33" departLane="best" from="-75701376#1" to="1046248579"/>
    <trip id="veh128" type="veh_passenger" depart="432.71" departLane="best" from="72641085#3" to="77875607#1"/>
    <trip id="veh129" type="veh_passenger" depart="436.09" departLane="best" from="70200199#5" to="-564511814"/>
    <trip id="veh131" type="veh_passenger" depart="442.85" departLane="best" from="75259405#7" to="-75259402#0"/>
    <trip id="veh133" type="veh_passenger" depart="449.61" departLane="best" from="535725901#9" to="77709899#4"/>
    <trip id="veh136" type="veh_passenger" depart="459.76" departLane="best" departSpeed="max" from="-1046248579" to="75679316#1"/>
    <trip id="veh138" type="veh_passenger" depart="466.52" departLane="best" from="75413340#0" to="693637406#3"/>
    <trip id="veh140" type="veh_passenger" depart="473.28" departLane="best" from="-537232374#1" to="77684921"/>
    <trip id="veh142" type="veh_passenger" depart="480.04" departLane="best" from="77670431#4" to="693637406#11"/>
    <trip id="veh143" type="veh_passenger" depart="483.42" departLane="best" from="-72641085#2" to="-70200192#0"/>
    <trip id="veh144" type="veh_passenger" depart="486.80" departLane="best" from="147419849#3" to="77709896#3"/>
    <trip id="veh145" type="veh_passenger" depart="490.18" departLane="best" from="75679337#1" to="77674945#0"/>
    <trip id="veh146" type="veh_passenger" depart="493.56" departLane="best" from="77873286#3" to="-75259405#0"/>
    <trip id="veh147" type="veh_passenger" depart="496.94" departLane="best" from="-90743683#1" to="563505769#18"/>
    <trip id="veh148" type="veh_passenger" depart="500.32" departLane="best" from="75679325#0" to="77684921"/>
    <trip id="veh149" type="veh_passenger" depart="503.70" departLane="best" from="386834059#0" to="70200197#1"/>
    <trip id="veh150" type="veh_passenger" depart="507.08" departLane="best" from="-72644044#5" to="77874501#1"/>
    <trip id="veh151" type="veh_passenger" depart="510.46" departLane="best" from="77674945#6" to="889999537#1"/>
    <trip id="veh152" type="veh_passenger" depart="513.84" departLane="best" from="75701374#4" to="77674950#9"/>
    <trip id="veh153" type="veh_passenger" depart="517.23" departLane="best" from="183876531#2" to="75413343#2"/>
    <trip id="veh154" type="veh_passenger" depart="520.61" departLane="best" departSpeed="max" from="151438531" to="77874501#2"/>
    <trip id="veh155" type="veh_passenger" depart="523.99" departLane="best" from="75679359#1" to="77674945#4"/>
    <trip id="veh157" type="veh_passenger" depart="530.75" departLane="best" from="-75701376#0" to="75701374#9"/>
    <trip id="veh159" type="veh_passenger" depart="537.51" departLane="best" from="75679337#0" to="75413330#0"/>
    <trip id="veh160" type="veh_passenger" depart="540.89" departLane="best" from="183876531#1" to="72644727#2"/>
    <trip id="veh161" type="veh_passenger" depart="544.27" departLane="best" departSpeed="max" from="151438531" to="77674945#4"/>
    <trip id="veh163" type="veh_passenger" depart="551.03" departLane="best" from="75679299#1" to="278132384#5"/>
    <trip id="veh164" type="veh_passenger" depart="554.41" departLane="best" departSpeed="max" from="890738229#0" to="563505741#1"/>
    <trip id="veh165" type="veh_passenger" depart="557.79" departLane="best" from="829471627#1" to="-564511814"/>
    <trip id="veh166" type="veh_passenger" depart="561.17" departLane="best" from="889999537#0" to="-72644044#5"/>
    <trip id="veh168" type="veh_passenger" depart="567.93" departLane="best" from="-563505769#6" to="386834060#13"/>
    <trip id="veh170" type="veh_passenger" depart="574.69" departLane="best" departSpeed="max" from="70200195#0" to="535752963#1"/>
    <trip id="veh171" type="veh_passenger" depart="578.08" departLane="best" from="-278132384#7" to="69321368#3"/>
    <trip id="veh173" type="veh_passenger" depart="584.84" departLane="best" departSpeed="max" from="-1046248579" to="77873314#7"/>
    <trip id="veh174" type="veh_passenger" depart="588.22" departLane="best" from="-563505769#8" to="75413331#0"/>
    <trip id="veh175" type="veh_passenger" depart="591.60" departLane="best" from="75413340#1" to="72644721#0"/>
    <trip id="veh176" type="veh_passenger" depart="594.98" departLane="best" from="75679256#7" to="-447326319#2"/>
    <trip id="veh179" type="veh_passenger" depart="605.12" departLane="best" from="75259406#1" to="1046248579"/>
    <trip id="veh180" type="veh_passenger" depart="608.50" departLane="best" from="147419849#4" to="329703619#3"/>
    <trip id="veh181" type="veh_passenger" depart="611.88" departLane="best" from="-329703621#6" to="1013410328"/>
    <trip id="veh182" type="veh_passenger" depart="615.26" departLane="best" departSpeed="max" from="-70200197#5" to="329703621#4"/>
    <trip id="veh183" type="veh_passenger" depart="618.64" departLane="best" from="829471627#3" to="72644725#0"/>
    <trip id="veh184" type="veh_passenger" depart="622.02" departLane="best" from="77873286#7" to="70200195#6"/>
    <trip id="veh186" type="veh_passenger" depart="628.78" departLane="best" departSpeed="max" from="-1046248579" to="-890738229#0"/>
    <trip id="veh187" type="veh_passenger" depart="632.16" departLane="best" from="447326318" to="693637327#2"/>
    <trip id="veh188" type="veh_passenger" depart="635.54" departLane="best" from="72508821#2" to="447326322#4"/>
    <trip id="veh189" type="veh_passenger" depart="638.93" departLane="best" from="447326322#2" to="-75259405#1"/>
    <trip id="veh190" type="veh_passenger" depart="642.31" departLane="best" from="535558320#3" to="77709896#3-AddedOnRampEdge"/>
    <trip id="veh191" type="veh_passenger" depart="645.69" departLane="best" from="75679337#1" to="-72641085#4"/>
    <trip id="veh192" type="veh_passenger" depart="649.07" departLane="best" from="-563505734#3" to="537023654"/>
    <trip id="veh193" type="veh_passenger" depart="652.45" departLane="best" from="70200199#5" to="147419849#4"/>
    <trip id="veh194" type="veh_passenger" depart="655.83" departLane="best" from="75701376#2" to="75416306#8"/>
    <trip id="veh195" type="veh_passenger" depart="659.21" departLane="best" from="72644044#5" to="-75413329#0"/>
    <trip id="veh196" type="veh_passenger" depart="662.59" departLane="best" departSpeed="max" from="-75413330#3" to="-147379106#2"/>
    <trip id="veh197" type="veh_passenger" depart="665.97" departLane="best" from="-890559137" to="451065273"/>
    <trip id="veh199" type="veh_passenger" depart="672.73" departLane="best" from="386834060#3" to="70200199#2"/>
    <trip id="veh200" type="veh_passenger" depart="676.11" departLane="best" from="-75413330#1" to="-75259402#1"/>
    <trip id="veh201" type="veh_passenger" depart="679.49" departLane="best" from="537023654" to="75413343#1"/>
    <trip id="veh203" type="veh_passenger" depart="686.25" departLane="best" from="75416306#4" to="75679316#0"/>
    <trip id="veh204" type="veh_passenger" depart="689.63" departLane="best" from="-563505769#4" to="-333333538"/>
    <trip id="veh205" type="veh_passenger" depart="693.01" departLane="best" from="75259400#6" to="829471627#3"/>
    <trip id="veh209" type="veh_passenger" depart="706.54" departLane="best" departSpeed="max" from="72644044#0" to="89478571#3"/>
    <trip id="veh210" type="veh_passenger" depart="709.92" departLane="best" from="70200192#1" to="77881557#4"/>
    <trip id="veh211" type="veh_passenger" depart="713.30" departLane="best" from="77709899#3" to="70200195#3"/>
    <trip id="veh212" type="veh_passenger" depart="716.68" departLane="best" from="75259406#1" to="535725901#12"/>
    <trip id="veh214" type="veh_passenger" depart="723.44" departLane="best" from="77873286#1" to="75416306#11"/>
    <trip id="veh216" type="veh_passenger" depart="730.20" departLane="best" from="-890738229#1" to="72508573#0"/>
    <trip id="veh217" type="veh_passenger" depart="733.58" departLane="best" from="75679284#1" to="537232374#2"/>
    <trip id="veh219" type="veh_passenger" depart="740.34" departLane="best" departSpeed="max" from="-537232374#2" to="-890738229#0"/>
    <trip id="veh221" type="veh_passenger" depart="747.10" departLane="best" from="563505770" to="-70200193"/>
    <trip id="veh222" type="veh_passenger" depart="750.48" departLane="best" from="-77674920#1" to="75259400#5"/>
    <trip id="veh223" type="veh_passenger" depart="753.86" departLane="best" from="75259402#2" to="-447326048#2"/>
    <trip id="veh225" type="veh_passenger" depart="760.63" departLane="best" from="386834060#4" to="-75259402#1"/>
    <trip id="veh226" type="veh_passenger" depart="764.01" departLane="best" from="447326043" to="77709899#3"/>
    <trip id="veh227" type="veh_passenger" depart="767.39" departLane="best" from="70056689#5" to="75259400#7"/>
    <trip id="veh228" type="veh_passenger" depart="770.77" departLane="best" from="77674942#0" to="75679307#1"/>
    <trip id="veh230" type="veh_passenger" depart="777.53" departLane="best" from="77674938#2" to="77881557#9"/>
    <trip id="veh231" type="veh_passenger" depart="780.91" departLane="best" from="386834060#9" to="75416306#5"/>
    <trip id="veh232" type="veh_passenger" depart="784.29" departLane="best" departSpeed="max" from="564511814" to="70200192#1"/>
    <trip id="veh233" type="veh_passenger" depart="787.67" departLane="best" departSpeed="max" from="-75679328#2" to="-75259405#7"/>
    <trip id="veh235" type="veh_passenger" depart="794.43" departLane="best" from="183876531#1" to="72644725#2"/>
    <trip id="veh236" type="veh_passenger" depart="797.81" departLane="best" from="329703621#8" to="-72631942#1"/>
    <trip id="veh237" type="veh_passenger" depart="801.19" departLane="best" from="535556339#3" to="-70200192#0"/>
    <trip id="veh238" type="veh_passenger" depart="804.57" departLane="best" from="329703620#4" to="563505769#8"/>
    <trip id="veh239" type="veh_passenger" depart="807.95" departLane="best" from="-183876531#4" to="72508573#3"/>
    <trip id="veh240" type="veh_passenger" depart="811.33" departLane="best" from="70200199#6" to="447326322#1"/>
    <trip id="veh241" type="veh_passenger" depart="814.71" departLane="best" from="-329703621#1" to="237036477#7"/>
    <trip id="veh242" type="veh_passenger" depart="818.09" departLane="best" from="-75413339#3" to="147379116#8"/>
    <trip id="veh243" type="veh_passenger" depart="821.48" departLane="best" from="75416306#5" to="769466394#8"/>
    <trip id="veh244" type="veh_passenger" depart="824.86" departLane="best" from="1013410328" to="537232376"/>
    <trip id="veh246" type="veh_passenger" depart="831.62" departLane="best" from="-90743683#3" to="-183876531#0"/>
    <trip id="veh247" type="veh_passenger" depart="835.00" departLane="best" from="72508816#6" to="75679256#10"/>
    <trip id="veh249" type="veh_passenger" depart="841.76" departLane="best" departSpeed="max" from="-70200197#5" to="72644044#6"/>
    <trip id="veh250" type="veh_passenger" depart="845.14" departLane="best" from="69321368#3" to="-75259405#6"/>
    <trip id="veh251" type="veh_passenger" depart="848.52" departLane="best" from="75259400#6" to="75679312#1"/>
    <trip id="veh252" type="veh_passenger" depart="851.90" departLane="best" from="75416306#1" to="-564511814"/>
    <trip id="veh254" type="veh_passenger" depart="858.66" departLane="best" from="-563505769#6" to="-147379107#1"/>
    <trip id="veh255" type="veh_passenger" depart="862.04" departLane="best" from="147419849#5" to="72644725#0"/>
    <trip id="veh258" type="veh_passenger" depart="872.18" departLane="best" from="72644727#0" to="70200197#5"/>
    <trip id="veh259" type="veh_passenger" depart="875.56" departLane="best" from="563505769#18" to="75679319#0"/>
    <trip id="veh260" type="veh_passenger" depart="878.94" departLane="best" from="77674929#4" to="-70080981#1"/>
    <trip id="veh261" type="veh_passenger" depart="882.33" departLane="best" from="70200192#6" to="890559266#1"/>
    <trip id="veh263" type="veh_passenger" depart="889.09" departLane="best" from="447326050#1" to="237036477#19"/>
    <trip id="veh264" type="veh_passenger" depart="892.47" departLane="best" from="563505734#3" to="147419849#7"/>
    <trip id="veh265" type="veh_passenger" depart="895.85" departLane="best" from="77674929#4" to="-75701376#5"/>
    <trip id="veh267" type="veh_passenger" depart="902.61" departLane="best" from="72508571#1" to="769466394#3"/>
    <trip id="veh268" type="veh_passenger" depart="905.99" departLane="best" departSpeed="max" from="75259405#0" to="386834060#3"/>
    <trip id="veh271" type="veh_passenger" depart="916.13" departLane="best" from="563505769#8" to="535556338#1"/>
    <trip id="veh272" type="veh_passenger" depart="919.51" departLane="best" from="-447326319#3" to="-75413339#4"/>
    <trip id="veh274" type="veh_passenger" depart="926.27" departLane="best" from="769466394#8" to="-563505734#4"/>
    <trip id="veh276" type="veh_passenger" depart="933.03" departLane="best" from="535556339#0" to="70200195#11"/>
    <trip id="veh278" type="veh_passenger" depart="939.79" departLane="best" from="77674936#0" to="-72644721#1"/>
    <trip id="veh279" type="veh_passenger" depart="943.18" departLane="best" from="-75413339#3" to="75679337#2"/>
    <trip id="veh280" type="veh_passenger" depart="946.56" departLane="best" from="183876531#7" to="77674950#8"/>
    <trip id="veh283" type="veh_passenger" depart="956.70" departLane="best" from="535725901#9" to="75679256#6"/>
    <trip id="veh284" type="veh_passenger" depart="960.08" departLane="best" from="-72644727#0" to="693637406#7"/>
    <trip id="veh285" type="veh_passenger" depart="963.46" departLane="best" from="535752963#2" to="75679335#0"/>
    <trip id="veh288" type="veh_passenger" depart="973.60" departLane="best" from="70056689#2" to="447326496#6"/>
    <trip id="veh294" type="veh_passenger" depart="993.88" departLane="best" from="-563505769#5" to="75679299#0"/>
    <trip id="veh295" type="veh_passenger" depart="997.26" departLane="best" from="535725901#2" to="75413333#1"/>
    <trip id="veh296" type="veh_passenger" depart="1000.65" departLane="best" from="890559265#0" to="537232374#2"/>
    <trip id="veh297" type="veh_passenger" depart="1004.03" departLane="best" from="147379116#2" to="563505769#13"/>
    <trip id="veh300" type="veh_passenger" depart="1014.17" departLane="best" from="890556455#1" to="563505769#10"/>
    <trip id="veh301" type="veh_passenger" depart="1017.55" departLane="best" from="75259400#4" to="-70200192#0"/>
    <trip id="veh302" type="veh_passenger" depart="1020.93" departLane="best" from="77674947#1" to="535558320#1"/>
    <trip id="veh303" type="veh_passenger" depart="1024.31" departLane="best" from="77674950#0" to="69321368#0"/>
    <trip id="veh304" type="veh_passenger" depart="1027.69" departLane="best" from="535558320#0" to="447326043"/>
    <trip id="veh305" type="veh_passenger" depart="1031.07" departLane="best" from="75259405#6" to="-278132384#4"/>
    <trip id="veh307" type="veh_passenger" depart="1037.83" departLane="best" from="-75701376#6" to="278132384#7"/>
    <trip id="veh308" type="veh_passenger" depart="1041.21" departLane="best" from="-537232374#0" to="70200199#1"/>
    <trip id="veh309" type="veh_passenger" depart="1044.59" departLane="best" from="-329703621#5" to="-70200199#0"/>
    <trip id="veh312" type="veh_passenger" depart="1054.73" departLane="best" from="75679284#0" to="70200192#4"/>
    <trip id="veh313" type="veh_passenger" depart="1058.11" departLane="best" from="75679333#9" to="-75413329#1"/>
    <trip id="veh314" type="veh_passenger" depart="1061.50" departLane="best" from="447326322#2" to="77674945#0"/>
    <trip id="veh316" type="veh_passenger" depart="1068.26" departLane="best" from="75413339#4" to="77881557#1"/>
    <trip id="veh317" type="veh_passenger" depart="1071.64" departLane="best" from="-75413336#2" to="-75259405#0"/>
    <trip id="veh318" type="veh_passenger" depart="1075.02" departLane="best" from="-72641085#0" to="-72508571#1"/>
    <trip id="veh320" type="veh_passenger" depart="1081.78" departLane="best" departSpeed="max" from="-1046248579" to="447326318"/>
    <trip id="veh321" type="veh_passenger" depart="1085.16" departLane="best" departSpeed="max" from="70200192#0" to="890738229#2"/>