<?xml version="1.0" encoding="UTF-8"?>

<!-- generated on 2023-09-21 17:45:05.099507 by osmWebWizard.py UNKNOWN
<configuration>
    <net-file value="/home/caiopetruccirosa/Repositories/sumo-unicamp-simulation/unicamp-simulation/simulation-only-pedestrians/2023-09-21-17-44-59/osm.net.xml.gz"/>
    <additional-files value="/home/caiopetruccirosa/Repositories/sumo-unicamp-simulation/unicamp-simulation/simulation-only-pedestrians/2023-09-21-17-44-59/osm_stops.add.xml,/home/caiopetruccirosa/Repositories/sumo-unicamp-simulation/unicamp-simulation/simulation-only-pedestrians/2023-09-21-17-44-59/osm_pt.rou.xml"/>
    <output-trip-file value="/home/caiopetruccirosa/Repositories/sumo-unicamp-simulation/unicamp-simulation/simulation-only-pedestrians/2023-09-21-17-44-59/osm.pedestrian.trips.xml"/>
    <route-file value="/home/caiopetruccirosa/Repositories/sumo-unicamp-simulation/unicamp-simulation/simulation-only-pedestrians/2023-09-21-17-44-59/osm.pedestrian.rou.xml"/>
    <persontrips value="True"/>
    <persontrip.walk-opposite-factor value="0.8"/>
    <prefix value="ped"/>
    <trip-attributes value="modes=&quot;public&quot;"/>
    <vehicle-class value="pedestrian"/>
    <fringe-factor value="2"/>
    <insertion-density value="50.0"/>
</configuration>
-->

<routes xmlns:xsi="http://www.w3.org/2001/XMLSchema-instance" xsi:noNamespaceSchemaLocation="http://sumo.dlr.de/xsd/routes_file.xsd">
    <vType id="ped_pedestrian" vClass="pedestrian"/>
    <person id="ped0" depart="0.00" type="ped_pedestrian">
        <personTrip from="562047787" to="-535723605#1" modes="public"/>
    </person>
    <person id="ped1" depart="1.52" type="ped_pedestrian">
        <personTrip from="-890025926" to="-886955285#0" modes="public"/>
    </person>
    <person id="ped2" depart="3.04" type="ped_pedestrian">
        <personTrip from="77785123#1" to="692055285#1" modes="public"/>
    </person>
    <person id="ped3" depart="4.55" type="ped_pedestrian">
        <personTrip from="95015344#7" to="-562047743#1" modes="public"/>
    </person>
    <person id="ped4" depart="6.07" type="ped_pedestrian">
        <personTrip from="1106471685#0" to="-537025691#4" modes="public"/>
    </person>
    <person id="ped5" depart="7.59" type="ped_pedestrian">
        <personTrip from="-841330476#1" to="537025696" modes="public"/>
    </person>
    <person id="ped6" depart="9.11" type="ped_pedestrian">
        <personTrip from="-535556336#1" to="-841330477#0" modes="public"/>
    </person>
    <person id="ped7" depart="10.62" type="ped_pedestrian">
        <personTrip from="562096867#3" to="537232379#1" modes="public"/>
    </person>
    <person id="ped8" depart="12.14" type="ped_pedestrian">
        <personTrip from="-841330477#1" to="562047769#1" modes="public"/>
    </person>
    <person id="ped9" depart="13.66" type="ped_pedestrian">
        <personTrip from="886955285#1" to="-278132384#3" modes="public"/>
    </person>
    <person id="ped10" depart="15.18" type="ped_pedestrian">
        <personTrip from="886955282" to="76845625#0" modes="public"/>
    </person>
    <person id="ped11" depart="16.70" type="ped_pedestrian">
        <personTrip from="-970796650" to="-698317154" modes="public"/>
    </person>
    <person id="ped12" depart="18.21" type="ped_pedestrian">
        <personTrip from="970796641" to="1106471671" modes="public"/>
    </person>
    <person id="ped13" depart="19.73" type="ped_pedestrian">
        <personTrip from="-562047740#1" to="-562047760" modes="public"/>
    </person>
    <person id="ped14" depart="21.25" type="ped_pedestrian">
        <personTrip from="890025928#3" to="562047791" modes="public"/>
    </person>
    <person id="ped15" depart="22.77" type="ped_pedestrian">
        <personTrip from="886955283" to="834865325" modes="public"/>
    </person>
    <person id="ped16" depart="24.28" type="ped_pedestrian">
        <personTrip from="535556336#0" to="970819175" modes="public"/>
    </person>
    <person id="ped17" depart="25.80" type="ped_pedestrian">
        <personTrip from="-973937902#1" to="537282070" modes="public"/>
    </person>
    <person id="ped18" depart="27.32" type="ped_pedestrian">
        <personTrip from="889185985#0" to="562096877" modes="public"/>
    </person>
    <person id="ped19" depart="28.84" type="ped_pedestrian">
        <personTrip from="890763400#0" to="562047754" modes="public"/>
    </person>
    <person id="ped20" depart="30.36" type="ped_pedestrian">
        <personTrip from="681758981#1" to="-537026096" modes="public"/>
    </person>
    <person id="ped21" depart="31.87" type="ped_pedestrian">
        <personTrip from="-850495241#1" to="-970796640#1" modes="public"/>
    </person>
    <person id="ped22" depart="33.39" type="ped_pedestrian">
        <personTrip from="-537282071#0" to="-887728298" modes="public"/>
    </person>
    <person id="ped23" depart="34.91" type="ped_pedestrian">
        <personTrip from="-562047751" to="-970568636#1" modes="public"/>
    </person>
    <person id="ped24" depart="36.43" type="ped_pedestrian">
        <personTrip from="562047776" to="1106471683" modes="public"/>
    </person>
    <person id="ped25" depart="37.94" type="ped_pedestrian">
        <personTrip from="-973906928#2" to="-850495245#0" modes="public"/>
    </person>
    <person id="ped26" depart="39.46" type="ped_pedestrian">
        <personTrip from="-889185987#1" to="970796637" modes="public"/>
    </person>
    <person id="ped27" depart="40.98" type="ped_pedestrian">
        <personTrip from="562096865" to="562096867#2" modes="public"/>
    </person>
    <person id="ped28" depart="42.50" type="ped_pedestrian">
        <personTrip from="-697010966" to="834865324" modes="public"/>
    </person>
    <person id="ped29" depart="44.02" type="ped_pedestrian">
        <personTrip from="-692055278" to="1106471690" modes="public"/>
    </person>
    <person id="ped30" depart="45.53" type="ped_pedestrian">
        <personTrip from="973444848" to="664950501#0" modes="public"/>
    </person>
    <person id="ped31" depart="47.05" type="ped_pedestrian">
        <personTrip from="537026094#2" to="698317150" modes="public"/>
    </person>
    <person id="ped32" depart="48.57" type="ped_pedestrian">
        <personTrip from="889999540" to="886955277" modes="public"/>
    </person>
    <person id="ped33" depart="50.09" type="ped_pedestrian">
        <personTrip from="-850495242" to="-537025692#1" modes="public"/>
    </person>
    <person id="ped34" depart="51.61" type="ped_pedestrian">
        <personTrip from="-970642627" to="-890763401#1" modes="public"/>
    </person>
    <person id="ped35" depart="53.12" type="ped_pedestrian">
        <personTrip from="-841169545" to="970796641" modes="public"/>
    </person>
    <person id="ped36" depart="54.64" type="ped_pedestrian">
        <personTrip from="95015341" to="-970819177" modes="public"/>
    </person>
    <person id="ped37" depart="56.16" type="ped_pedestrian">
        <personTrip from="562096871#1" to="1106471701#1" modes="public"/>
    </person>
    <person id="ped38" depart="57.68" type="ped_pedestrian">
        <personTrip from="95015364" to="470718565#4" modes="public"/>
    </person>
    <person id="ped39" depart="59.19" type="ped_pedestrian">
        <personTrip from="-889185985#1" to="-889993137" modes="public"/>
    </person>
    <person id="ped40" depart="60.71" type="ped_pedestrian">
        <personTrip from="537026096" to="-890685630" modes="public"/>
    </person>
    <person id="ped41" depart="62.23" type="ped_pedestrian">
        <personTrip from="537228184" to="95015368#1" modes="public"/>
    </person>
    <person id="ped42" depart="63.75" type="ped_pedestrian">
        <personTrip from="1106471674#2" to="-886955281#0" modes="public"/>
    </person>
    <person id="ped43" depart="65.27" type="ped_pedestrian">
        <personTrip from="983088351" to="537026094#1" modes="public"/>
    </person>
    <person id="ped44" depart="66.78" type="ped_pedestrian">
        <personTrip from="-562047740#0" to="-537026100" modes="public"/>
    </person>
    <person id="ped45" depart="68.30" type="ped_pedestrian">
        <personTrip from="-562047765#0" to="564166313#0" modes="public"/>
    </person>
    <person id="ped46" depart="69.82" type="ped_pedestrian">
        <personTrip from="850495242" to="410036317#1" modes="public"/>
    </person>
    <person id="ped47" depart="71.34" type="ped_pedestrian">
        <personTrip from="-537142891#1" to="1106471692" modes="public"/>
    </person>
    <person id="ped48" depart="72.85" type="ped_pedestrian">
        <personTrip from="973937902#0" to="537114950" modes="public"/>
    </person>
    <person id="ped49" depart="74.37" type="ped_pedestrian">
        <personTrip from="970796652#1" to="95015344#12" modes="public"/>
    </person>
    <person id="ped50" depart="75.89" type="ped_pedestrian">
        <personTrip from="-410036317#1" to="834862854" modes="public"/>
    </person>
    <person id="ped51" depart="77.41" type="ped_pedestrian">
        <personTrip from="664950505" to="537228182#2" modes="public"/>
    </person>
    <person id="ped52" depart="78.93" type="ped_pedestrian">
        <personTrip from="-889185987#1" to="664950501#1" modes="public"/>
    </person>
    <person id="ped53" depart="80.44" type="ped_pedestrian">
        <personTrip from="-562047766" to="470718563#1" modes="public"/>
    </person>
    <person id="ped54" depart="81.96" type="ped_pedestrian">
        <personTrip from="1145132050" to="970796648" modes="public"/>
    </person>
    <person id="ped55" depart="83.48" type="ped_pedestrian">
        <personTrip from="95015341" to="-890685630" modes="public"/>
    </person>
    <person id="ped56" depart="85.00" type="ped_pedestrian">
        <personTrip from="470718565#1" to="-834865324" modes="public"/>
    </person>
    <person id="ped57" depart="86.51" type="ped_pedestrian">
        <personTrip from="95015361" to="95015344#6" modes="public"/>
    </person>
    <person id="ped58" depart="88.03" type="ped_pedestrian">
        <personTrip from="-941509528" to="652202159" modes="public"/>
    </person>
    <person id="ped59" depart="89.55" type="ped_pedestrian">
        <personTrip from="562047741" to="-697010970#1" modes="public"/>
    </person>
    <person id="ped60" depart="91.07" type="ped_pedestrian">
        <personTrip from="834865326#1" to="537228183#1" modes="public"/>
    </person>
    <person id="ped61" depart="92.59" type="ped_pedestrian">
        <personTrip from="841330476#2" to="537114950" modes="public"/>
    </person>
    <person id="ped62" depart="94.10" type="ped_pedestrian">
        <personTrip from="-1077973094" to="-973937898" modes="public"/>
    </person>
    <person id="ped63" depart="95.62" type="ped_pedestrian">
        <personTrip from="-410036320#1" to="970642624" modes="public"/>
    </person>
    <person id="ped64" depart="97.14" type="ped_pedestrian">
        <personTrip from="95015344#10" to="890593393" modes="public"/>
    </person>
    <person id="ped65" depart="98.66" type="ped_pedestrian">
        <personTrip from="-970568636#0" to="-537228182#0" modes="public"/>
    </person>
    <person id="ped66" depart="100.17" type="ped_pedestrian">
        <personTrip from="95015344#1" to="970796645" modes="public"/>
    </person>
    <person id="ped67" depart="101.69" type="ped_pedestrian">
        <personTrip from="-538031525" to="489446220#0" modes="public"/>
    </person>
    <person id="ped68" depart="103.21" type="ped_pedestrian">
        <personTrip from="-537228184" to="850495241#0" modes="public"/>
    </person>
    <person id="ped69" depart="104.73" type="ped_pedestrian">
        <personTrip from="834865328#1" to="-562096881" modes="public"/>
    </person>
    <person id="ped70" depart="106.25" type="ped_pedestrian">
        <personTrip from="410036319#4" to="537243163" modes="public"/>
    </person>
    <person id="ped71" depart="107.76" type="ped_pedestrian">
        <personTrip from="-889185986" to="95015344#8" modes="public"/>
    </person>
    <person id="ped72" depart="109.28" type="ped_pedestrian">
        <personTrip from="1106471685#1" to="-850890050#1" modes="public"/>
    </person>
    <person id="ped73" depart="110.80" type="ped_pedestrian">
        <personTrip from="535723605#1" to="834865326#0" modes="public"/>
    </person>
    <person id="ped74" depart="112.32" type="ped_pedestrian">
        <personTrip from="-834865326#1" to="-970819174" modes="public"/>
    </person>
    <person id="ped75" depart="113.83" type="ped_pedestrian">
        <personTrip from="973937901" to="664950508#0" modes="public"/>
    </person>
    <person id="ped76" depart="115.35" type="ped_pedestrian">
        <personTrip from="1106471698#1" to="537026099" modes="public"/>
    </person>
    <person id="ped77" depart="116.87" type="ped_pedestrian">
        <personTrip from="-562047790#0" to="-886955285#2" modes="public"/>
    </person>
    <person id="ped78" depart="118.39" type="ped_pedestrian">
        <personTrip from="-970796649" to="562047769#0" modes="public"/>
    </person>
    <person id="ped79" depart="119.91" type="ped_pedestrian">
        <personTrip from="-850495244" to="-886955281#1" modes="public"/>
    </person>
    <person id="ped80" depart="121.42" type="ped_pedestrian">
        <personTrip from="-537228186" to="564166314#1" modes="public"/>
    </person>
    <person id="ped81" depart="122.94" type="ped_pedestrian">
        <personTrip from="-850495242" to="95015375#0" modes="public"/>
    </person>
    <person id="ped82" depart="124.46" type="ped_pedestrian">
        <personTrip from="890646705#2" to="-537282071#1" modes="public"/>
    </person>
    <person id="ped83" depart="125.98" type="ped_pedestrian">
        <personTrip from="-886955275" to="681758980" modes="public"/>
    </person>
    <person id="ped84" depart="127.49" type="ped_pedestrian">
        <personTrip from="-841330467" to="-564166312#0" modes="public"/>
    </person>
    <person id="ped85" depart="129.01" type="ped_pedestrian">
        <personTrip from="95015375#6" to="562047744" modes="public"/>
    </person>
    <person id="ped86" depart="130.53" type="ped_pedestrian">
        <personTrip from="410036319#0" to="886955285#3" modes="public"/>
    </person>
    <person id="ped87" depart="132.05" type="ped_pedestrian">
        <personTrip from="886955284" to="-841169544" modes="public"/>
    </person>
    <person id="ped88" depart="133.57" type="ped_pedestrian">
        <personTrip from="-562047744" to="410036320#2" modes="public"/>
    </person>
    <person id="ped89" depart="135.08" type="ped_pedestrian">
        <personTrip from="1106471685#1" to="470718569" modes="public"/>
    </person>
    <person id="ped90" depart="136.60" type="ped_pedestrian">
        <personTrip from="76845625#2" to="692055282#1" modes="public"/>
    </person>
    <person id="ped91" depart="138.12" type="ped_pedestrian">
        <personTrip from="973429470#1" to="-562047764#0" modes="public"/>
    </person>
    <person id="ped92" depart="139.64" type="ped_pedestrian">
        <personTrip from="1106471675#0" to="1106471672#2" modes="public"/>
    </person>
    <person id="ped93" depart="141.15" type="ped_pedestrian">
        <personTrip from="890763400#0" to="-890025927#0" modes="public"/>
    </person>
    <person id="ped94" depart="142.67" type="ped_pedestrian">
        <personTrip from="-834862853#1" to="470718564#7" modes="public"/>
    </person>
    <person id="ped95" depart="144.19" type="ped_pedestrian">
        <personTrip from="1106471685#0" to="-970568636#2" modes="public"/>
    </person>
    <person id="ped96" depart="145.71" type="ped_pedestrian">
        <personTrip from="-886955285#3" to="970568634" modes="public"/>
    </person>
    <person id="ped97" depart="147.23" type="ped_pedestrian">
        <personTrip from="1106471700" to="95015344#12" modes="public"/>
    </person>
    <person id="ped98" depart="148.74" type="ped_pedestrian">
        <personTrip from="537025695#2" to="-537114947#1" modes="public"/>
    </person>
    <person id="ped99" depart="150.26" type="ped_pedestrian">
        <personTrip from="983088352" to="890646705#2" modes="public"/>
    </person>
    <person id="ped100" depart="151.78" type="ped_pedestrian">
        <personTrip from="970796651" to="970573855" modes="public"/>
    </person>
    <person id="ped101" depart="153.30" type="ped_pedestrian">
        <personTrip from="890025929#1" to="-834862852" modes="public"/>
    </person>
    <person id="ped102" depart="154.82" type="ped_pedestrian">
        <personTrip from="470718564#10" to="-886955275" modes="public"/>
    </person>
    <person id="ped103" depart="156.33" type="ped_pedestrian">
        <personTrip from="1106471674#3" to="-537228182#1" modes="public"/>
    </person>
    <person id="ped104" depart="157.85" type="ped_pedestrian">
        <personTrip from="1077973094" to="973429477" modes="public"/>
    </person>
    <person id="ped105" depart="159.37" type="ped_pedestrian">
        <personTrip from="-889185986" to="886955285#2" modes="public"/>
    </person>
    <person id="ped106" depart="160.89" type="ped_pedestrian">
        <personTrip from="237702983" to="410036317#1" modes="public"/>
    </person>
    <person id="ped107" depart="162.40" type="ped_pedestrian">
        <personTrip from="970796641" to="973937902#0" modes="public"/>
    </person>
    <person id="ped108" depart="163.92" type="ped_pedestrian">
        <personTrip from="537026092" to="834862849" modes="public"/>
    </person>
    <person id="ped109" depart="165.44" type="ped_pedestrian">
        <personTrip from="-664950507" to="-970796646#3" modes="public"/>
    </person>
    <person id="ped110" depart="166.96" type="ped_pedestrian">
        <personTrip from="970796650" to="562047757" modes="public"/>
    </person>
    <person id="ped111" depart="168.48" type="ped_pedestrian">
        <personTrip from="535723605#5" to="841330476#1" modes="public"/>
    </person>
    <person id="ped112" depart="169.99" type="ped_pedestrian">
        <personTrip from="-537114948" to="562047764#1" modes="public"/>
    </person>
    <person id="ped113" depart="171.51" type="ped_pedestrian">
        <personTrip from="470718565#2" to="95015338#1" modes="public"/>
    </person>
    <person id="ped114" depart="173.03" type="ped_pedestrian">
        <personTrip from="-664950508#1" to="970810518" modes="public"/>
    </person>
    <person id="ped115" depart="174.55" type="ped_pedestrian">
        <personTrip from="-537282071#0" to="-834865328#1" modes="public"/>
    </person>
    <person id="ped116" depart="176.06" type="ped_pedestrian">
        <personTrip from="537282072#1" to="692055283" modes="public"/>
    </person>
    <person id="ped117" depart="177.58" type="ped_pedestrian">
        <personTrip from="-850890050#1" to="-562096867#3" modes="public"/>
    </person>
    <person id="ped118" depart="179.10" type="ped_pedestrian">
        <personTrip from="95015344#5" to="-889486573" modes="public"/>
    </person>
    <person id="ped119" depart="180.62" type="ped_pedestrian">
        <personTrip from="537282072#1" to="562096881" modes="public"/>
    </person>
    <person id="ped120" depart="182.14" type="ped_pedestrian">
        <personTrip from="1106471684#2" to="562047764#0" modes="public"/>
    </person>
    <person id="ped121" depart="183.65" type="ped_pedestrian">
        <personTrip from="476312122#0" to="970642629" modes="public"/>
    </person>
    <person id="ped122" depart="185.17" type="ped_pedestrian">
        <personTrip from="-834865328#1" to="834862846" modes="public"/>
    </person>
    <person id="ped123" depart="186.69" type="ped_pedestrian">
        <personTrip from="-886955276#0" to="1106471701#1" modes="public"/>
    </person>
    <person id="ped124" depart="188.21" type="ped_pedestrian">
        <personTrip from="564166315#1" to="-970796649" modes="public"/>
    </person>
    <person id="ped125" depart="189.72" type="ped_pedestrian">
        <personTrip from="-970642628" to="841330479#1" modes="public"/>
    </person>
    <person id="ped126" depart="191.24" type="ped_pedestrian">
        <personTrip from="-537232379#0" to="470718565#4" modes="public"/>
    </person>
    <person id="ped127" depart="192.76" type="ped_pedestrian">
        <personTrip from="983088351" to="973937902#1" modes="public"/>
    </person>
    <person id="ped128" depart="194.28" type="ped_pedestrian">
        <personTrip from="-537232379#1" to="-886955274" modes="public"/>
    </person>
    <person id="ped129" depart="195.80" type="ped_pedestrian">
        <personTrip from="-889185986" to="970642628" modes="public"/>
    </person>
    <person id="ped130" depart="197.31" type="ped_pedestrian">
        <personTrip from="95015344#11" to="95015351#3" modes="public"/>
    </person>
    <person id="ped131" depart="198.83" type="ped_pedestrian">
        <personTrip from="-973906928#1" to="-70080981#3" modes="public"/>
    </person>
    <person id="ped132" depart="200.35" type="ped_pedestrian">
        <personTrip from="889185987#1" to="77674932#0" modes="public"/>
    </person>
    <person id="ped133" depart="201.87" type="ped_pedestrian">
        <personTrip from="562047744" to="973906928#0" modes="public"/>
    </person>
    <person id="ped134" depart="203.38" type="ped_pedestrian">
        <personTrip from="562096870#1" to="-278132384#7" modes="public"/>
    </person>
    <person id="ped135" depart="204.90" type="ped_pedestrian">
        <personTrip from="886955296" to="-970796648" modes="public"/>
    </person>
    <person id="ped136" depart="206.42" type="ped_pedestrian">
        <personTrip from="564166312#0" to="970796639" modes="public"/>
    </person>
    <person id="ped137" depart="207.94" type="ped_pedestrian">
        <personTrip from="-562096870#1" to="-562047790#5" modes="public"/>
    </person>
    <person id="ped138" depart="209.46" type="ped_pedestrian">
        <personTrip from="-562047762#0" to="537282071#1" modes="public"/>
    </person>
    <person id="ped139" depart="210.97" type="ped_pedestrian">
        <personTrip from="-889486573" to="562047791" modes="public"/>
    </person>
    <person id="ped140" depart="212.49" type="ped_pedestrian">
        <personTrip from="70080981#3" to="-850492441" modes="public"/>
    </person>
    <person id="ped141" depart="214.01" type="ped_pedestrian">
        <personTrip from="562047773" to="-890763400#0" modes="public"/>
    </person>
    <person id="ped142" depart="215.53" type="ped_pedestrian">
        <personTrip from="470718564#3" to="95015375#0" modes="public"/>
    </person>
    <person id="ped143" depart="217.04" type="ped_pedestrian">
        <personTrip from="890025928#1" to="-562047753" modes="public"/>
    </person>
    <person id="ped144" depart="218.56" type="ped_pedestrian">
        <personTrip from="1106471685#1" to="-970568635" modes="public"/>
    </person>
    <person id="ped145" depart="220.08" type="ped_pedestrian">
        <personTrip from="-258997528#1" to="886955273" modes="public"/>
    </person>
    <person id="ped146" depart="221.60" type="ped_pedestrian">
        <personTrip from="562047784#2" to="-890653329" modes="public"/>
    </person>
    <person id="ped147" depart="223.12" type="ped_pedestrian">
        <personTrip from="834653995#0" to="537282070" modes="public"/>
    </person>
    <person id="ped148" depart="224.63" type="ped_pedestrian">
        <personTrip from="1106471689" to="-410036317#0" modes="public"/>
    </person>
    <person id="ped149" depart="226.15" type="ped_pedestrian">
        <personTrip from="-537243160" to="95015355#1" modes="public"/>
    </person>
    <person id="ped150" depart="227.67" type="ped_pedestrian">
        <personTrip from="95015355#0" to="537232379#2" modes="public"/>
    </person>
    <person id="ped151" depart="229.19" type="ped_pedestrian">
        <personTrip from="889185988" to="562047762#0" modes="public"/>
    </person>
    <person id="ped152" depart="230.70" type="ped_pedestrian">
        <personTrip from="-664950501#1" to="-562096877" modes="public"/>
    </person>
    <person id="ped153" depart="232.22" type="ped_pedestrian">
        <personTrip from="-970568636#1" to="95015370" modes="public"/>
    </person>
    <person id="ped154" depart="233.74" type="ped_pedestrian">
        <personTrip from="850890050#1" to="95015344#12" modes="public"/>
    </person>
    <person id="ped155" depart="235.26" type="ped_pedestrian">
        <personTrip from="95015351#2" to="-850495245#1" modes="public"/>
    </person>
    <person id="ped156" depart="236.78" type="ped_pedestrian">
        <personTrip from="-886955285#3" to="-562047766" modes="public"/>
    </person>
    <person id="ped157" depart="238.29" type="ped_pedestrian">
        <personTrip from="841330477#1" to="95015356#0" modes="public"/>
    </person>
    <person id="ped158" depart="239.81" type="ped_pedestrian">
        <personTrip from="1106471676#4" to="562096887" modes="public"/>
    </person>
    <person id="ped159" depart="241.33" type="ped_pedestrian">
        <personTrip from="-664950506" to="970642625" modes="public"/>
    </person>
    <person id="ped160" depart="242.85" type="ped_pedestrian">
        <personTrip from="890763401#0" to="973429470#0" modes="public"/>
    </person>
    <person id="ped161" depart="244.37" type="ped_pedestrian">
        <personTrip from="886955285#3" to="95015355#0" modes="public"/>
    </person>
    <person id="ped162" depart="245.88" type="ped_pedestrian">
        <personTrip from="-489446220#1" to="834865331" modes="public"/>
    </person>
    <person id="ped163" depart="247.40" type="ped_pedestrian">
        <personTrip from="-970796646#2" to="970642626#1" modes="public"/>
    </person>
    <person id="ped164" depart="248.92" type="ped_pedestrian">
        <personTrip from="886955278" to="95015344#2" modes="public"/>
    </person>
    <person id="ped165" depart="250.44" type="ped_pedestrian">
        <personTrip from="886955285#3" to="-890763401#0" modes="public"/>
    </person>
    <person id="ped166" depart="251.95" type="ped_pedestrian">
        <personTrip from="850492441" to="-562047784#1" modes="public"/>
    </person>
    <person id="ped167" depart="253.47" type="ped_pedestrian">
        <personTrip from="944532268#0" to="95015344#10" modes="public"/>
    </person>
    <person id="ped168" depart="254.99" type="ped_pedestrian">
        <personTrip from="-850123265" to="889993136#0" modes="public"/>
    </person>
    <person id="ped169" depart="256.51" type="ped_pedestrian">
        <personTrip from="237702994" to="-970810518" modes="public"/>
    </person>
    <person id="ped170" depart="258.03" type="ped_pedestrian">
        <personTrip from="850890050#0" to="-886955291" modes="public"/>
    </person>
    <person id="ped171" depart="259.54" type="ped_pedestrian">
        <personTrip from="-489446220#0" to="-841177017" modes="public"/>
    </person>
    <person id="ped172" depart="261.06" type="ped_pedestrian">
        <personTrip from="-970796643" to="95015344#2" modes="public"/>
    </person>
    <person id="ped173" depart="262.58" type="ped_pedestrian">
        <personTrip from="970796648" to="-970573855" modes="public"/>
    </person>
    <person id="ped174" depart="264.10" type="ped_pedestrian">
        <personTrip from="562047790#2" to="1106471704#0" modes="public"/>
    </person>
    <person id="ped175" depart="265.61" type="ped_pedestrian">
        <personTrip from="970819175" to="537228182#1" modes="public"/>
    </person>
    <person id="ped176" depart="267.13" type="ped_pedestrian">
        <personTrip from="95015378#1" to="-562047790#5" modes="public"/>
    </person>
    <person id="ped177" depart="268.65" type="ped_pedestrian">
        <personTrip from="970796652#0" to="-834865324" modes="public"/>
    </person>
    <person id="ped178" depart="270.17" type="ped_pedestrian">
        <personTrip from="970796646#1" to="-890763400#1" modes="public"/>
    </person>
    <person id="ped179" depart="271.69" type="ped_pedestrian">
        <personTrip from="-562047764#0" to="470718563#1" modes="public"/>
    </person>
    <person id="ped180" depart="273.20" type="ped_pedestrian">
        <personTrip from="76845625#2" to="-970819176" modes="public"/>
    </person>
    <person id="ped181" depart="274.72" type="ped_pedestrian">
        <personTrip from="562047737" to="537026094#4" modes="public"/>
    </person>
    <person id="ped182" depart="276.24" type="ped_pedestrian">
        <personTrip from="1106471669" to="562047753" modes="public"/>
    </person>
    <person id="ped183" depart="277.76" type="ped_pedestrian">
        <personTrip from="-886955295" to="77785123#1" modes="public"/>
    </person>
    <person id="ped184" depart="279.27" type="ped_pedestrian">
        <personTrip from="-258997528#0" to="970568636#1" modes="public"/>
    </person>
    <person id="ped185" depart="280.79" type="ped_pedestrian">
        <personTrip from="535723605#0" to="834862853#0" modes="public"/>
    </person>
    <person id="ped186" depart="282.31" type="ped_pedestrian">
        <personTrip from="834653995#1" to="681758981#1" modes="public"/>
    </person>
    <person id="ped187" depart="283.83" type="ped_pedestrian">
        <personTrip from="-973429475" to="-537282071#0" modes="public"/>
    </person>
    <person id="ped188" depart="285.35" type="ped_pedestrian">
        <personTrip from="564166312#2" to="1106471668#0" modes="public"/>
    </person>
    <person id="ped189" depart="286.86" type="ped_pedestrian">
        <personTrip from="-970642626#0" to="941509528" modes="public"/>
    </person>
    <person id="ped190" depart="288.38" type="ped_pedestrian">
        <personTrip from="706979351#1" to="-970796649" modes="public"/>
    </person>
    <person id="ped191" depart="289.90" type="ped_pedestrian">
        <personTrip from="-970568636#2" to="237702986#1" modes="public"/>
    </person>
    <person id="ped192" depart="291.42" type="ped_pedestrian">